<?xml version="1.0" encoding="UTF-8"?>

<!-- generated on 2025-03-31 00:01:38 by 
<configuration xmlns:xsi="http://www.w3.org/2001/XMLSchema-instance" xsi:noNamespaceSchemaLocation="http://sumo.dlr.de/xsd/Configuration.xsd">

    <input>
        <osm-files value="TRUE"/>
    </input>

    <output>
        <opendrive-output value="TRUE"/>
    </output>

    <projection>
        <proj value="+proj=tmerc"/>
    </projection>

    <processing>
        <geometry.remove value="true"/>
        <roundabouts.guess value="true"/>
        <edges.join value="true"/>
    </processing>

    <building_defaults>
        <default.lanewidth value="3.350000"/>
        <default.sidewalk-width value="2.800000"/>
    </building_defaults>

    <tls_building>
        <tls.group-signals value="true"/>
    </tls_building>

    <ramp_guessing>
        <ramps.guess value="true"/>
    </ramp_guessing>

    <edge_removal>
        <keep-edges.by-type value="highway.motorway,highway.motorway_link,highway.trunk,highway.trunk_link,highway.primary,highway.primary_link,highway.secondary,highway.secondary_link,highway.tertiary,highway.tertiary_link,highway.unclassified,highway.residential,"/>
    </edge_removal>

    <junctions>
        <junctions.join value="true"/>
    </junctions>

    <pedestrian>
        <sidewalks.guess value="true"/>
    </pedestrian>

    <formats>
        <osm.sidewalks value="true"/>
        <osm.crossings value="true"/>
    </formats>

    <report>
        <aggregate-warnings value="5"/>
    </report>

</configuration>
-->

<OpenDRIVE>
    <header revMajor="1" revMinor="4" name="" version="1.00" date="Mon Mar 31 00:01:38 2025" north="3939.80" south="0.00" east="4009.03" west="0.00">
        <geoReference>
 <![CDATA[
 +proj=tmerc
]]>
        </geoReference>
        <offset x="5234686.37" y="3519863.70" z="0.00" hdg="0"/>
    </header>
    <road name="" length="1089.11823237" id="3160" junction="-1">
        <link>
            <predecessor elementType="junction" elementId="1"/>
            <successor elementType="junction" elementId="2"/>
        </link>
        <type s="0" type="town"/>
        <planView>
            <geometry s="0.00000000" x="4009.03185202" y="3698.60562139" hdg="-2.45363635" length="27.04748906">
                <line/>
            </geometry>
            <geometry s="27.04748906" x="3988.13644173" y="3681.43155684" hdg="-2.45363635" length="13.87951494">
                <paramPoly3 aU="-0.00000000" bU="10.40757486" cU="10.40755597" dU="-6.95158526" aV="0.00000000" bV="0.00000000" cV="-0.90926640" dV="0.30366578" pRange="normalized"/>
            </geometry>
            <geometry s="40.92700400" x="3977.04169292" y="3673.09661852" hdg="-2.54094675" length="237.62253589">
                <line/>
            </geometry>
            <geometry s="278.54953989" x="3781.01005433" y="3538.79819621" hdg="-2.54094675" length="13.88283338">
                <paramPoly3 aU="-0.00000000" bU="10.41157254" cU="10.39633585" dU="-6.93371046" aV="0.00000000" bV="0.00000000" cV="0.98507017" dV="-0.51683838" pRange="normalized"/>
            </geometry>
            <geometry s="292.43237327" x="3769.82888014" y="3530.57056271" hdg="-2.50063210" length="3.36363201">
                <paramPoly3 aU="-0.00000000" bU="2.52264827" cU="2.51986070" dU="-1.68021812" aV="0.00000000" bV="0.00000000" cV="0.20538921" dV="-0.11405865" pRange="normalized"/>
            </geometry>
            <geometry s="295.79600527" x="3767.18854343" y="3528.48682494" hdg="-2.47343412" length="13.88999998">
                <paramPoly3 aU="-0.00000000" bU="10.41749999" cU="10.41750000" dU="-6.94500001" aV="0.00000000" bV="0.00000000" cV="-0.00022273" dV="0.00036218" pRange="normalized"/>
            </geometry>
            <geometry s="309.68600526" x="3756.28548177" y="3519.88128336" hdg="-2.47337258" length="429.26616035">
                <line/>
            </geometry>
            <geometry s="738.95216560" x="3419.34342491" y="3253.91232514" hdg="-2.47337258" length="13.77116315">
                <paramPoly3 aU="-0.00000000" bU="10.30539759" cU="10.30301089" dU="-7.01573980" aV="0.00000000" bV="-0.00000000" cV="-3.04798216" dV="1.03762742" pRange="normalized"/>
            </geometry>
            <geometry s="752.72332875" x="3407.42859405" y="3247.06842469" hdg="-2.76704350" length="29.14418272">
                <line/>
            </geometry>
            <geometry s="781.86751147" x="3380.30489997" y="3236.40593877" hdg="-2.76704350" length="13.39303676">
                <paramPoly3 aU="-0.00000000" bU="9.95412820" cU="9.91474006" dU="-7.18704528" aV="0.00000000" bV="-0.00000000" cV="-6.13264143" dV="2.21832321" pRange="normalized"/>
            </geometry>
            <geometry s="795.26054823" x="3367.07020908" y="3235.40920507" hdg="2.91738409" length="23.70631385">
                <line/>
            </geometry>
            <geometry s="818.96686208" x="3343.95725533" y="3240.67994368" hdg="2.91738409" length="13.86229500">
                <paramPoly3 aU="0.00000000" bU="10.39396408" cU="10.34896957" dU="-6.91562521" aV="-0.00000000" bV="-0.00000000" cV="-1.78573320" dV="0.85468237" pRange="normalized"/>
            </geometry>
            <geometry s="832.82915708" x="3330.68304422" y="3244.66198254" hdg="2.82030820" length="11.07270310">
                <paramPoly3 aU="0.00000000" bU="8.29683831" cU="8.39874247" dU="-5.64086133" aV="-0.00000000" bV="0.00000000" cV="0.19476976" dV="-0.60829347" pRange="normalized"/>
            </geometry>
            <geometry s="843.90186018" x="3320.32457304" y="3248.54526709" hdg="2.64643490" length="13.51188851">
                <paramPoly3 aU="0.00000000" bU="10.09746007" cU="10.49348364" dU="-7.21206486" aV="-0.00000000" bV="0.00000000" cV="-0.95323886" dV="-0.55192280" pRange="normalized"/>
            </geometry>
            <geometry s="857.41374869" x="3309.26778934" y="3256.22689747" hdg="2.28588765" length="50.17321602">
                <line/>
            </geometry>
            <geometry s="907.58696471" x="3276.36989534" y="3294.10934954" hdg="2.28588765" length="13.87756622">
                <paramPoly3 aU="0.00000000" bU="10.40573095" cU="10.40570439" dU="-6.95280174" aV="-0.00000000" bV="0.00000000" cV="-0.99008890" dV="0.33077449" pRange="normalized"/>
            </geometry>
            <geometry s="921.46453093" x="3267.78078253" y="3305.00538377" hdg="2.19081079" length="46.52921039">
                <line/>
            </geometry>
            <geometry s="967.99374132" x="3240.74512750" y="3342.87411463" hdg="2.19081079" length="13.78483445">
                <paramPoly3 aU="0.00000000" bU="10.31825115" cU="10.31637806" dU="-7.00803206" aV="-0.00000000" bV="0.00000000" cV="2.86888537" dV="-0.97434465" pRange="normalized"/>
            </geometry>
            <geometry s="981.77857577" x="3231.28552506" y="3352.86357688" hdg="2.46710474" length="24.02303657">
                <line/>
            </geometry>
            <geometry s="1005.80161234" x="3212.52288843" y="3367.86590179" hdg="2.46710474" length="13.57457728">
                <paramPoly3 aU="0.00000000" bU="10.12177191" cU="10.10545850" dU="-7.11464529" aV="-0.00000000" bV="0.00000000" cV="4.92514120" dV="-1.73234951" pRange="normalized"/>
            </geometry>
            <geometry s="1019.37618963" x="3200.28771710" y="3373.56102162" hdg="2.94479051" length="18.39339772">
                <line/>
            </geometry>
            <geometry s="1037.76958734" x="3182.24936933" y="3377.15756012" hdg="2.94479051" length="13.66586795">
                <paramPoly3 aU="0.00000000" bU="10.20676760" cU="10.19841439" dU="-7.07145126" aV="-0.00000000" bV="0.00000000" cV="4.16780284" dV="-1.44435931" pRange="normalized"/>
            </geometry>
            <geometry s="1051.43545529" x="3168.64049481" y="3377.09388806" hdg="-2.93543314" length="21.61207103">
                <line/>
            </geometry>
            <geometry s="1073.04752632" x="3147.48607477" y="3372.66984840" hdg="-2.93543314" length="13.88999933">
                <paramPoly3 aU="-0.00000000" bU="10.41749936" cU="10.41749936" dU="-6.94500043" aV="0.00000000" bV="0.00000000" cV="0.00729068" dV="-0.00243023" pRange="normalized"/>
            </geometry>
            <geometry s="1086.93752565" x="3133.89120201" y="3369.82177692" hdg="-2.93473329" length="2.18070672">
                <line/>
            </geometry>
        </planView>
        <elevationProfile>
            <elevation s="0" a="0.00" b="0" c="0" d="0"/>
        </elevationProfile>
        <lateralProfile/>
        <lanes>
            <laneSection s="0">
                <center>
                    <lane id="0" type="none" level="true">
                        <link/>
                        <roadMark sOffset="0" type="solid" weight="standard" color="standard" width="0.13" laneChange="none"/>
                    </lane>
                </center>
                <right>
                    <lane id="-1" type="driving" level="true">
                        <link/>
                        <width sOffset="0" a="3.35" b="0" c="0" d="0"/>
                        <roadMark sOffset="0" type="solid" weight="standard" color="standard" width="0.13" laneChange="none"/>
                        <speed sOffset="0" max="13.89"/>
                    </lane>
                    <lane id="-2" type="sidewalk" level="true">
                        <link/>
                        <width sOffset="0" a="2.80" b="0" c="0" d="0"/>
                        <roadMark sOffset="0" type="solid" weight="standard" color="standard" width="0.13" laneChange="none"/>
                        <speed sOffset="0" max="13.89"/>
                    </lane>
                 </right>
            </laneSection>
        </lanes>
        <objects/>
    </road>
    <road name="" length="14.25582613" id="3161" junction="-1">
        <link>
            <predecessor elementType="junction" elementId="3"/>
            <successor elementType="junction" elementId="4"/>
        </link>
        <type s="0" type="town"/>
        <planView>
            <geometry s="0.00000000" x="2561.63550750" y="3767.58402869" hdg="0.48606232" length="14.25582613">
                <line/>
            </geometry>
        </planView>
        <elevationProfile>
            <elevation s="0" a="0.00" b="0" c="0" d="0"/>
        </elevationProfile>
        <lateralProfile/>
        <lanes>
            <laneSection s="0">
                <center>
                    <lane id="0" type="none" level="true">
                        <link/>
                        <roadMark sOffset="0" type="solid" weight="standard" color="standard" width="0.13" laneChange="none"/>
                    </lane>
                </center>
                <right>
                    <lane id="-1" type="driving" level="true">
                        <link/>
                        <width sOffset="0" a="3.35" b="0" c="0" d="0"/>
                        <roadMark sOffset="0" type="solid" weight="standard" color="standard" width="0.13" laneChange="none"/>
                        <speed sOffset="0" max="13.89"/>
                    </lane>
                    <lane id="-2" type="sidewalk" level="true">
                        <link/>
                        <width sOffset="0" a="2.80" b="0" c="0" d="0"/>
                        <roadMark sOffset="0" type="solid" weight="standard" color="standard" width="0.13" laneChange="none"/>
                        <speed sOffset="0" max="13.89"/>
                    </lane>
                 </right>
            </laneSection>
        </lanes>
        <objects/>
    </road>
    <road name="Rua Roxo Moreira" length="217.94461087" id="3162" junction="-1">
        <link>
            <predecessor elementType="junction" elementId="5"/>
            <successor elementType="junction" elementId="6"/>
        </link>
        <type s="0" type="town"/>
        <planView>
            <geometry s="0.00000000" x="867.91932597" y="2674.72853478" hdg="2.70177905" length="217.94461087">
                <line/>
            </geometry>
        </planView>
        <elevationProfile>
            <elevation s="0" a="0.00" b="0" c="0" d="0"/>
        </elevationProfile>
        <lateralProfile/>
        <lanes>
            <laneSection s="0">
                <center>
                    <lane id="0" type="none" level="true">
                        <link/>
                        <roadMark sOffset="0" type="solid" weight="standard" color="standard" width="0.13" laneChange="none"/>
                    </lane>
                </center>
                <right>
                    <lane id="-1" type="driving" level="true">
                        <link/>
                        <width sOffset="0" a="3.35" b="0" c="0" d="0"/>
                        <roadMark sOffset="0" type="solid" weight="standard" color="standard" width="0.13" laneChange="none"/>
                        <speed sOffset="0" max="13.89"/>
                    </lane>
                    <lane id="-2" type="sidewalk" level="true">
                        <link/>
                        <width sOffset="0" a="2.80" b="0" c="0" d="0"/>
                        <roadMark sOffset="0" type="solid" weight="standard" color="standard" width="0.13" laneChange="none"/>
                        <speed sOffset="0" max="13.89"/>
                    </lane>
                 </right>
            </laneSection>
        </lanes>
        <objects/>
    </road>
    <road name="Rua Roxo Moreira" length="205.54971533" id="3163" junction="-1">
        <link>
            <predecessor elementType="junction" elementId="7"/>
            <successor elementType="junction" elementId="5"/>
        </link>
        <type s="0" type="town"/>
        <planView>
            <geometry s="0.00000000" x="1067.22931386" y="2579.01838964" hdg="2.69361284" length="205.54971533">
                <line/>
            </geometry>
        </planView>
        <elevationProfile>
            <elevation s="0" a="0.00" b="0" c="0" d="0"/>
        </elevationProfile>
        <lateralProfile/>
        <lanes>
            <laneSection s="0">
                <center>
                    <lane id="0" type="none" level="true">
                        <link/>
                        <roadMark sOffset="0" type="solid" weight="standard" color="standard" width="0.13" laneChange="none"/>
                    </lane>
                </center>
                <right>
                    <lane id="-1" type="driving" level="true">
                        <link/>
                        <width sOffset="0" a="3.35" b="0" c="0" d="0"/>
                        <roadMark sOffset="0" type="solid" weight="standard" color="standard" width="0.13" laneChange="none"/>
                        <speed sOffset="0" max="13.89"/>
                    </lane>
                    <lane id="-2" type="sidewalk" level="true">
                        <link/>
                        <width sOffset="0" a="2.80" b="0" c="0" d="0"/>
                        <roadMark sOffset="0" type="solid" weight="standard" color="standard" width="0.13" laneChange="none"/>
                        <speed sOffset="0" max="13.89"/>
                    </lane>
                 </right>
            </laneSection>
        </lanes>
        <objects/>
    </road>
    <road name="Rua Roxo Moreira" length="161.75073904" id="3164" junction="-1">
        <link>
            <predecessor elementType="junction" elementId="8"/>
            <successor elementType="junction" elementId="7"/>
        </link>
        <type s="0" type="town"/>
        <planView>
            <geometry s="0.00000000" x="1226.65086865" y="2501.88261329" hdg="2.69082956" length="161.75073904">
                <line/>
            </geometry>
        </planView>
        <elevationProfile>
            <elevation s="0" a="0.00" b="0" c="0" d="0"/>
        </elevationProfile>
        <lateralProfile/>
        <lanes>
            <laneSection s="0">
                <center>
                    <lane id="0" type="none" level="true">
                        <link/>
                        <roadMark sOffset="0" type="solid" weight="standard" color="standard" width="0.13" laneChange="none"/>
                    </lane>
                </center>
                <right>
                    <lane id="-1" type="driving" level="true">
                        <link/>
                        <width sOffset="0" a="3.35" b="0" c="0" d="0"/>
                        <roadMark sOffset="0" type="solid" weight="standard" color="standard" width="0.13" laneChange="none"/>
                        <speed sOffset="0" max="13.89"/>
                    </lane>
                    <lane id="-2" type="sidewalk" level="true">
                        <link/>
                        <width sOffset="0" a="2.80" b="0" c="0" d="0"/>
                        <roadMark sOffset="0" type="solid" weight="standard" color="standard" width="0.13" laneChange="none"/>
                        <speed sOffset="0" max="13.89"/>
                    </lane>
                 </right>
            </laneSection>
        </lanes>
        <objects/>
    </road>
    <road name="Rua Doutor Francisco de Toledo" length="105.37921485" id="3165" junction="-1">
        <link>
            <predecessor elementType="junction" elementId="9"/>
            <successor elementType="junction" elementId="10"/>
        </link>
        <type s="0" type="town"/>
        <planView>
            <geometry s="0.00000000" x="1152.18360371" y="2711.25893642" hdg="-0.82471020" length="76.22387826">
                <line/>
            </geometry>
            <geometry s="76.22387826" x="1203.92207115" y="2655.28384728" hdg="-0.82471020" length="7.85627267">
                <paramPoly3 aU="0.00000000" bU="5.89201463" cU="5.89433945" dU="-3.93033459" aV="0.00000000" bV="0.00000000" cV="0.16730708" dV="-0.16670561" pRange="normalized"/>
            </geometry>
            <geometry s="84.08015093" x="1209.25494169" y="2649.51517896" hdg="-0.85280321" length="21.29906393">
                <line/>
            </geometry>
        </planView>
        <elevationProfile>
            <elevation s="0" a="0.00" b="0" c="0" d="0"/>
        </elevationProfile>
        <lateralProfile/>
        <lanes>
            <laneSection s="0">
                <center>
                    <lane id="0" type="none" level="true">
                        <link/>
                        <roadMark sOffset="0" type="solid" weight="standard" color="standard" width="0.13" laneChange="none"/>
                    </lane>
                </center>
                <right>
                    <lane id="-1" type="driving" level="true">
                        <link/>
                        <width sOffset="0" a="3.35" b="0" c="0" d="0"/>
                        <roadMark sOffset="0" type="solid" weight="standard" color="standard" width="0.13" laneChange="none"/>
                        <speed sOffset="0" max="27.78"/>
                    </lane>
                 </right>
            </laneSection>
        </lanes>
        <objects/>
    </road>
    <road name="Rua Doutor Francisco de Toledo" length="218.68714861" id="3166" junction="-1">
        <link>
            <predecessor elementType="junction" elementId="11"/>
            <successor elementType="junction" elementId="9"/>
        </link>
        <type s="0" type="town"/>
        <planView>
            <geometry s="0.00000000" x="988.89758195" y="2879.80341025" hdg="-0.80030025" length="218.68714861">
                <line/>
            </geometry>
        </planView>
        <elevationProfile>
            <elevation s="0" a="0.00" b="0" c="0" d="0"/>
        </elevationProfile>
        <lateralProfile/>
        <lanes>
            <laneSection s="0">
                <center>
                    <lane id="0" type="none" level="true">
                        <link/>
                        <roadMark sOffset="0" type="solid" weight="standard" color="standard" width="0.13" laneChange="none"/>
                    </lane>
                </center>
                <right>
                    <lane id="-1" type="driving" level="true">
                        <link/>
                        <width sOffset="0" a="3.35" b="0" c="0" d="0"/>
                        <roadMark sOffset="0" type="solid" weight="standard" color="standard" width="0.13" laneChange="none"/>
                        <speed sOffset="0" max="27.78"/>
                    </lane>
                 </right>
            </laneSection>
        </lanes>
        <objects/>
    </road>
    <road name="Rua Doutor Francisco de Toledo" length="410.25819420" id="3167" junction="-1">
        <link>
            <predecessor elementType="junction" elementId="12"/>
            <successor elementType="junction" elementId="11"/>
        </link>
        <type s="0" type="town"/>
        <planView>
            <geometry s="0.00000000" x="815.00199250" y="3228.33956107" hdg="-2.03780719" length="14.00693477">
                <line/>
            </geometry>
            <geometry s="14.00693477" x="808.69580090" y="3215.83251629" hdg="-2.03780719" length="16.27971056">
                <paramPoly3 aU="-0.00000000" bU="12.19882259" cU="11.85658220" dU="-7.95667068" aV="0.00000000" bV="0.00000000" cV="5.01122027" dV="-2.69084665" pRange="normalized"/>
            </geometry>
            <geometry s="30.28664533" x="803.51974446" y="3200.41298929" hdg="-1.87727523" length="13.44187453">
                <paramPoly3 aU="-0.00000000" bU="10.08074153" cU="10.08441890" dU="-6.72714579" aV="0.00000000" bV="0.00000000" cV="0.34435672" dV="-0.06162039" pRange="normalized"/>
            </geometry>
            <geometry s="43.72851985" x="799.73500978" y="3187.51585935" hdg="-1.82727273" length="18.01227632">
                <paramPoly3 aU="-0.00000000" bU="13.50882960" cU="13.50295795" dU="-9.00422172" aV="0.00000000" bV="-0.00000000" cV="0.74084405" dV="-0.35157262" pRange="normalized"/>
            </geometry>
            <geometry s="61.74079618" x="795.54350047" y="3169.99857620" hdg="-1.79566072" length="16.14909174">
                <paramPoly3 aU="-0.00000000" bU="12.10884513" cU="12.14960178" dU="-8.11432443" aV="0.00000000" bV="-0.00000000" cV="-0.48838202" dV="0.66846575" pRange="normalized"/>
            </geometry>
            <geometry s="77.88988792" x="792.11932821" y="3154.22073842" hdg="-1.71060930" length="9.20582936">
                <paramPoly3 aU="-0.00000000" bU="6.89906062" cU="6.74613412" dU="-4.52400466" aV="0.00000000" bV="-0.00000000" cV="2.53004262" dV="-1.33804977" pRange="normalized"/>
            </geometry>
            <geometry s="87.09571728" x="792.02857964" y="3145.02243857" hdg="-1.55841690" length="9.24541532">
                <paramPoly3 aU="0.00000000" bU="6.93304751" cU="6.94424629" dU="-4.63549513" aV="0.00000000" bV="-0.00000000" cV="0.11465948" dV="0.08994894" pRange="normalized"/>
            </geometry>
            <geometry s="96.34113259" x="792.34757764" y="3135.78388092" hdg="-1.48635652" length="8.83713923">
                <paramPoly3 aU="0.00000000" bU="6.62713830" cU="6.59912859" dU="-4.40213270" aV="0.00000000" bV="-0.00000000" cV="1.05555816" dV="-0.59424428" pRange="normalized"/>
            </geometry>
            <geometry s="105.17827182" x="793.55147096" y="3127.03009342" hdg="-1.43678489" length="11.18594077">
                <paramPoly3 aU="0.00000000" bU="8.38798737" cU="8.40512803" dU="-5.60915693" aV="0.00000000" bV="0.00000000" cV="-0.60761859" dV="0.58411895" pRange="normalized"/>
            </geometry>
            <geometry s="116.36421259" x="795.02247825" y="3115.94327166" hdg="-1.37270666" length="17.39695840">
                <paramPoly3 aU="0.00000000" bU="13.04623636" cU="13.02596312" dU="-8.69294834" aV="0.00000000" bV="0.00000000" cV="1.38118101" dV="-0.64157162" pRange="normalized"/>
            </geometry>
            <geometry s="133.76117099" x="799.16780362" y="3099.04943640" hdg="-1.30845642" length="10.61201802">
                <paramPoly3 aU="0.00000000" bU="7.95399027" cU="8.01805105" dU="-5.37345131" aV="0.00000000" bV="0.00000000" cV="-0.02132477" dV="0.39909432" pRange="normalized"/>
            </geometry>
            <geometry s="144.37318901" x="802.28129811" y="3088.91143995" hdg="-1.16277765" length="19.02836778">
                <paramPoly3 aU="0.00000000" bU="14.26700103" cU="14.24112922" dU="-9.52115526" aV="0.00000000" bV="-0.00000000" cV="1.97424060" dV="-0.80947445" pRange="normalized"/>
            </geometry>
            <geometry s="163.40155679" x="810.88431619" y="3071.94529780" hdg="-1.05603143" length="14.27520728">
                <paramPoly3 aU="0.00000000" bU="10.70156619" cU="10.71559712" dU="-7.17463966" aV="0.00000000" bV="0.00000000" cV="1.18871045" dV="-0.32390586" pRange="normalized"/>
            </geometry>
            <geometry s="177.67676407" x="818.64907434" y="3059.97425366" hdg="-0.92429582" length="23.79474510">
                <paramPoly3 aU="0.00000000" bU="17.83938314" cU="17.89771453" dU="-11.97285619" aV="0.00000000" bV="0.00000000" cV="0.94810280" dV="0.06541126" pRange="normalized"/>
            </geometry>
            <geometry s="201.47150917" x="833.77356142" y="3041.61625064" hdg="-0.80673193" length="208.78668502">
                <line/>
            </geometry>
        </planView>
        <elevationProfile>
            <elevation s="0" a="0.00" b="0" c="0" d="0"/>
        </elevationProfile>
        <lateralProfile/>
        <lanes>
            <laneSection s="0">
                <center>
                    <lane id="0" type="none" level="true">
                        <link/>
                        <roadMark sOffset="0" type="solid" weight="standard" color="standard" width="0.13" laneChange="none"/>
                    </lane>
                </center>
                <right>
                    <lane id="-1" type="driving" level="true">
                        <link/>
                        <width sOffset="0" a="3.35" b="0" c="0" d="0"/>
                        <roadMark sOffset="0" type="solid" weight="standard" color="standard" width="0.13" laneChange="none"/>
                        <speed sOffset="0" max="27.78"/>
                    </lane>
                 </right>
            </laneSection>
        </lanes>
        <objects/>
    </road>
    <road name="Avenida Érico Veríssimo" length="207.03052721" id="3168" junction="-1">
        <link>
            <predecessor elementType="junction" elementId="13"/>
            <successor elementType="junction" elementId="14"/>
        </link>
        <type s="0" type="town"/>
        <planView>
            <geometry s="0.00000000" x="1233.30979086" y="3277.95367784" hdg="1.00136524" length="60.46464758">
                <line/>
            </geometry>
            <geometry s="60.46464758" x="1265.90948650" y="3328.87747827" hdg="1.00136524" length="5.06262083">
                <paramPoly3 aU="0.00000000" bU="3.79655116" cU="3.78197116" dU="-2.52310199" aV="0.00000000" bV="0.00000000" cV="-0.57629784" dV="0.31695275" pRange="normalized"/>
            </geometry>
            <geometry s="65.52726841" x="1268.85355397" y="3332.99536624" hdg="0.94820318" length="35.73687037">
                <line/>
            </geometry>
            <geometry s="101.26413878" x="1289.69328523" y="3362.02689229" hdg="0.94820318" length="22.19589852">
                <paramPoly3 aU="0.00000000" bU="16.64514538" cU="16.59187159" dU="-11.06993108" aV="0.00000000" bV="0.00000000" cV="-2.31820785" dV="1.23517894" pRange="normalized"/>
            </geometry>
            <geometry s="123.46003730" x="1303.49970112" y="3379.40318444" hdg="0.89224904" length="3.80047524">
                <paramPoly3 aU="0.00000000" bU="2.85015494" cU="2.84273307" dU="-1.89598237" aV="0.00000000" bV="0.00000000" cV="-0.35618224" dV="0.19782308" pRange="normalized"/>
            </geometry>
            <geometry s="127.26051254" x="1306.00615772" y="3382.25962372" hdg="0.85052157" length="22.21999997">
                <paramPoly3 aU="0.00000000" bU="16.66499998" cU="16.66499998" dU="-11.10999999" aV="0.00000000" bV="0.00000000" cV="0.00002039" dV="-0.00018836" pRange="normalized"/>
            </geometry>
            <geometry s="149.48051251" x="1320.66240063" y="3398.96060999" hdg="0.85049011" length="19.06523807">
                <paramPoly3 aU="0.00000000" bU="14.29836198" cU="14.30533582" dU="-9.53921517" aV="0.00000000" bV="-0.00000000" cV="0.44492790" dV="-0.44545900" pRange="normalized"/>
            </geometry>
            <geometry s="168.54575058" x="1333.23801577" y="3413.28919687" hdg="0.81925620" length="17.60659118">
                <paramPoly3 aU="0.00000000" bU="13.20433104" cU="13.18167618" dU="-8.79028388" aV="0.00000000" bV="0.00000000" cV="-1.33953188" dV="0.74470113" pRange="normalized"/>
            </geometry>
            <geometry s="186.15234177" x="1345.68636319" y="3425.73917478" hdg="0.78555175" length="20.87818545">
                <line/>
            </geometry>
        </planView>
        <elevationProfile>
            <elevation s="0" a="0.00" b="0" c="0" d="0"/>
        </elevationProfile>
        <lateralProfile/>
        <lanes>
            <laneSection s="0">
                <center>
                    <lane id="0" type="none" level="true">
                        <link/>
                        <roadMark sOffset="0" type="solid" weight="standard" color="standard" width="0.13" laneChange="none"/>
                    </lane>
                </center>
                <right>
                    <lane id="-1" type="driving" level="true">
                        <link/>
                        <width sOffset="0" a="3.35" b="0" c="0" d="0"/>
                        <roadMark sOffset="0" type="solid" weight="standard" color="standard" width="0.13" laneChange="none"/>
                        <speed sOffset="0" max="22.22"/>
                    </lane>
                 </right>