<?xml version="1.0" encoding="UTF-8"?>

<!-- generated on 2025-03-31 14:44:31 by 
<configuration xmlns:xsi="http://www.w3.org/2001/XMLSchema-instance" xsi:noNamespaceSchemaLocation="http://sumo.dlr.de/xsd/Configuration.xsd">

    <input>
        <osm-files value="TRUE"/>
    </input>

    <output>
        <opendrive-output value="TRUE"/>
    </output>

    <projection>
        <proj value="+proj=tmerc"/>
    </projection>

    <processing>
        <geometry.remove value="true"/>
        <offset.disable-normalization value="true"/>
        <roundabouts.guess value="true"/>
        <edges.join value="true"/>
    </processing>

    <building_defaults>
        <default.lanewidth value="6.000000"/>
        <default.sidewalk-width value="2.800000"/>
    </building_defaults>

    <tls_building>
        <tls.group-signals value="true"/>
    </tls_building>

    <ramp_guessing>
        <ramps.guess value="true"/>
    </ramp_guessing>

    <edge_removal>
        <keep-edges.by-type value="highway.motorway,highway.motorway_link,highway.trunk,highway.trunk_link,highway.primary,highway.primary_link,highway.secondary,highway.secondary_link,highway.tertiary,highway.tertiary_link,highway.unclassified,highway.residential,"/>
    </edge_removal>

    <junctions>
        <junctions.join value="true"/>
    </junctions>

    <pedestrian>
        <sidewalks.guess value="true"/>
    </pedestrian>

    <formats>
        <osm.sidewalks value="true"/>
        <osm.crossings value="true"/>
    </formats>

    <report>
        <aggregate-warnings value="5"/>
    </report>

</configuration>
-->

<OpenDRIVE>
    <header revMajor="1" revMinor="4" name="" version="1.00" date="Mon Mar 31 14:44:31 2025" north="-3515963.42" south="-3519863.70" east="-5231614.93" west="-5233959.67">
        <geoReference>
 <![CDATA[
 +proj=tmerc
]]>
        </geoReference>
    </header>
    <road name="Rua Doutor Francisco de Toledo" length="773.49109922" id="1410" junction="-1">
        <link>
            <predecessor elementType="junction" elementId="1"/>
            <successor elementType="junction" elementId="2"/>
        </link>
        <type s="0" type="town"/>
        <planView>
            <geometry s="0.00000000" x="-5233867.74612651" y="-3516628.17382345" hdg="-2.03780719" length="22.05390459">
                <line/>
            </geometry>
            <geometry s="22.05390459" x="-5233877.67521878" y="-3516647.86615277" hdg="-2.03780719" length="16.27971056">
                <paramPoly3 aU="-0.00000000" bU="12.19882259" cU="11.85658220" dU="-7.95667069" aV="0.00000000" bV="0.00000000" cV="5.01122027" dV="-2.69084665" pRange="normalized"/>
            </geometry>
            <geometry s="38.33361515" x="-5233882.85127522" y="-3516663.28567978" hdg="-1.87727523" length="13.44187453">
                <paramPoly3 aU="-0.00000000" bU="10.08074153" cU="10.08441890" dU="-6.72714579" aV="0.00000000" bV="0.00000000" cV="0.34435671" dV="-0.06162039" pRange="normalized"/>
            </geometry>
            <geometry s="51.77548967" x="-5233886.63600991" y="-3516676.18280972" hdg="-1.82727273" length="18.01227632">
                <paramPoly3 aU="-0.00000000" bU="13.50882960" cU="13.50295795" dU="-9.00422172" aV="0.00000000" bV="0.00000000" cV="0.74084405" dV="-0.35157262" pRange="normalized"/>
            </geometry>
            <geometry s="69.78776600" x="-5233890.82751922" y="-3516693.70009287" hdg="-1.79566072" length="16.14909174">
                <paramPoly3 aU="-0.00000000" bU="12.10884513" cU="12.14960178" dU="-8.11432443" aV="0.00000000" bV="-0.00000000" cV="-0.48838202" dV="0.66846575" pRange="normalized"/>
            </geometry>
            <geometry s="85.93685774" x="-5233894.25169147" y="-3516709.47793065" hdg="-1.71060930" length="9.20582936">
                <paramPoly3 aU="-0.00000000" bU="6.89906062" cU="6.74613412" dU="-4.52400466" aV="0.00000000" bV="0.00000000" cV="2.53004263" dV="-1.33804978" pRange="normalized"/>
            </geometry>
            <geometry s="95.14268710" x="-5233894.34244005" y="-3516718.67623049" hdg="-1.55841690" length="9.24541409">
                <paramPoly3 aU="0.00000000" bU="6.93304660" cU="6.94424536" dU="-4.63549451" aV="0.00000000" bV="0.00000000" cV="0.11465961" dV="0.08994879" pRange="normalized"/>
            </geometry>
            <geometry s="104.38810119" x="-5233894.02344208" y="-3516727.91478693" hdg="-1.48635654" length="8.83713427">
                <paramPoly3 aU="0.00000000" bU="6.62713458" cU="6.59912489" dU="-4.40213023" aV="0.00000000" bV="-0.00000000" cV="1.05555760" dV="-0.59424393" pRange="normalized"/>
            </geometry>
            <geometry s="113.22523546" x="-5233892.81954955" y="-3516736.66856953" hdg="-1.43678490" length="11.18594754">
                <paramPoly3 aU="0.00000000" bU="8.38799244" cU="8.40513311" dU="-5.60916032" aV="0.00000000" bV="-0.00000000" cV="-0.60761854" dV="0.58411899" pRange="normalized"/>
            </geometry>
            <geometry s="124.41118300" x="-5233891.34854130" y="-3516747.75539799" hdg="-1.37270667" length="17.39695780">
                <paramPoly3 aU="0.00000000" bU="13.04623591" cU="13.02596265" dU="-8.69294803" aV="0.00000000" bV="-0.00000000" cV="1.38118149" dV="-0.64157189" pRange="normalized"/>
            </geometry>
            <geometry s="141.80814080" x="-5233887.20321607" y="-3516764.64923267" hdg="-1.30845642" length="10.61201802">
                <paramPoly3 aU="0.00000000" bU="7.95399027" cU="8.01805105" dU="-5.37345132" aV="0.00000000" bV="-0.00000000" cV="-0.02132478" dV="0.39909432" pRange="normalized"/>
            </geometry>
            <geometry s="152.42015882" x="-5233884.08972157" y="-3516774.78722912" hdg="-1.16277765" length="19.02836778">
                <paramPoly3 aU="0.00000000" bU="14.26700103" cU="14.24112922" dU="-9.52115526" aV="0.00000000" bV="0.00000000" cV="1.97424060" dV="-0.80947445" pRange="normalized"/>
            </geometry>
            <geometry s="171.44852660" x="-5233875.48670349" y="-3516791.75337126" hdg="-1.05603143" length="14.27520728">
                <paramPoly3 aU="0.00000000" bU="10.70156619" cU="10.71559712" dU="-7.17463966" aV="0.00000000" bV="0.00000000" cV="1.18871045" dV="-0.32390586" pRange="normalized"/>
            </geometry>
            <geometry s="185.72373388" x="-5233867.72194534" y="-3516803.72441541" hdg="-0.92429582" length="23.79474510">
                <paramPoly3 aU="0.00000000" bU="17.83938315" cU="17.89771452" dU="-11.97285619" aV="0.00000000" bV="0.00000000" cV="0.94810280" dV="0.06541126" pRange="normalized"/>
            </geometry>
            <geometry s="209.51847898" x="-5233852.59745827" y="-3516822.08241842" hdg="-0.80673193" length="202.17132806">
                <line/>
            </geometry>
            <geometry s="411.68980704" x="-5233712.72284631" y="-3516968.05617914" hdg="-0.80673193" length="27.77988623">
                <paramPoly3 aU="0.00000000" bU="20.83489227" cU="20.83489227" dU="-13.89007182" aV="0.00000000" bV="0.00000000" cV="0.13400387" dV="-0.04466842" pRange="normalized"/>
            </geometry>
            <geometry s="439.46969326" x="-5233693.43862235" y="-3516988.05215687" hdg="-0.80030025" length="205.91827695">
                <line/>
            </geometry>
            <geometry s="645.38797021" x="-5233550.01833577" y="-3517135.81195580" hdg="-0.80030025" length="27.77836118">
                <paramPoly3 aU="0.00000000" bU="20.83344821" cU="20.83344798" dU="-13.89103414" aV="0.00000000" bV="0.00000000" cV="-0.50856861" dV="0.16954812" pRange="normalized"/>
            </geometry>
            <geometry s="673.16633140" x="-5233530.91595907" y="-3517155.97907389" hdg="-0.82471020" length="71.40419414">
                <line/>
            </geometry>
            <geometry s="744.57052554" x="-5233482.44894771" y="-3517208.41482269" hdg="-0.82471020" length="7.85627146">
                <paramPoly3 aU="0.00000000" bU="5.89201372" cU="5.89433854" dU="-3.93033399" aV="0.00000000" bV="0.00000000" cV="0.16730705" dV="-0.16670559" pRange="normalized"/>
            </geometry>
            <geometry s="752.42679700" x="-5233477.11607799" y="-3517214.18349012" hdg="-0.85280321" length="21.06430223">
                <line/>
            </geometry>
        </planView>
        <elevationProfile>
            <elevation s="0" a="0.00" b="0" c="0" d="0"/>
        </elevationProfile>
        <lateralProfile/>
        <lanes>
            <laneSection s="0">
                <center>
                    <lane id="0" type="none" level="true">
                        <link/>
                        <roadMark sOffset="0" type="solid" weight="standard" color="standard" width="0.13" laneChange="none"/>
                    </lane>
                </center>
                <right>
                    <lane id="-1" type="driving" level="true">
                        <link/>
                        <width sOffset="0" a="6.00" b="0" c="0" d="0"/>
                        <roadMark sOffset="0" type="solid" weight="standard" color="standard" width="0.13" laneChange="none"/>
                        <speed sOffset="0" max="27.78"/>
                    </lane>
                 </right>
            </laneSection>
        </lanes>
        <objects/>
    </road>
    <road name="Avenida Érico Veríssimo" length="200.54313342" id="1411" junction="-1">
        <link>
            <predecessor elementType="junction" elementId="3"/>
            <successor elementType="junction" elementId="4"/>
        </link>
        <type s="0" type="town"/>
        <planView>
            <geometry s="0.00000000" x="-5233451.65517430" y="-3516583.54860140" hdg="1.00136524" length="57.85675142">
                <line/>
            </geometry>
            <geometry s="57.85675142" x="-5233420.46153368" y="-3516534.82119157" hdg="1.00136524" length="5.06262612">
                <paramPoly3 aU="0.00000000" bU="3.79655513" cU="3.78197512" dU="-2.52310463" aV="0.00000000" bV="-0.00000000" cV="-0.57629833" dV="0.31695300" pRange="normalized"/>
            </geometry>
            <geometry s="62.91937754" x="-5233417.51746317" y="-3516530.70329927" hdg="0.94820318" length="35.73686599">
                <line/>
            </geometry>
            <geometry s="98.65624352" x="-5233396.67773446" y="-3516501.67177678" hdg="0.94820318" length="22.19589852">
                <paramPoly3 aU="0.00000000" bU="16.64514538" cU="16.59187159" dU="-11.06993108" aV="0.00000000" bV="0.00000000" cV="-2.31820784" dV="1.23517894" pRange="normalized"/>
            </geometry>
            <geometry s="120.85214205" x="-5233382.87131857" y="-3516484.29548463" hdg="0.89224904" length="3.80047537">
                <paramPoly3 aU="0.00000000" bU="2.85015504" cU="2.84273317" dU="-1.89598243" aV="0.00000000" bV="0.00000000" cV="-0.35618225" dV="0.19782309" pRange="normalized"/>
            </geometry>
            <geometry s="124.65261742" x="-5233380.36486188" y="-3516481.43904525" hdg="0.85052157" length="22.21999997">
                <paramPoly3 aU="0.00000000" bU="16.66499998" cU="16.66499998" dU="-11.10999999" aV="0.00000000" bV="0.00000000" cV="0.00002039" dV="-0.00018836" pRange="normalized"/>
            </geometry>
            <geometry s="146.87261739" x="-5233365.70861897" y="-3516464.73805898" hdg="0.85049011" length="19.06523796">
                <paramPoly3 aU="0.00000000" bU="14.29836189" cU="14.30533574" dU="-9.53921512" aV="0.00000000" bV="0.00000000" cV="0.44492822" dV="-0.44545931" pRange="normalized"/>
            </geometry>
            <geometry s="165.93785535" x="-5233353.13300390" y="-3516450.40947219" hdg="0.81925617" length="17.60661497">
                <paramPoly3 aU="0.00000000" bU="13.20434888" cU="13.18169402" dU="-8.79029578" aV="0.00000000" bV="-0.00000000" cV="-1.33953282" dV="0.74470165" pRange="normalized"/>
            </geometry>
            <geometry s="183.54447031" x="-5233340.68463967" y="-3516437.95947746" hdg="0.78555175" length="16.99866311">
                <line/>
            </geometry>
        </planView>
        <elevationProfile>
            <elevation s="0" a="0.00" b="0" c="0" d="0"/>
        </elevationProfile>
        <lateralProfile/>
        <lanes>
            <laneSection s="0">
                <center>
                    <lane id="0" type="none" level="true">
                        <link/>
                        <roadMark sOffset="0" type="solid" weight="standard" color="standard" width="0.13" laneChange="none"/>
                    </lane>
                </center>
                <right>
                    <lane id="-1" type="driving" level="true">
                        <link/>
                        <width sOffset="0" a="6.00" b="0" c="0" d="0"/>
                        <roadMark sOffset="0" type="solid" weight="standard" color="standard" width="0.13" laneChange="none"/>
                        <speed sOffset="0" max="22.22"/>
                    </lane>
                 </right>
            </laneSection>
        </lanes>
        <objects/>
    </road>
    <road name="Avenida Érico Veríssimo" length="282.16730622" id="1412" junction="-1">
        <link>
            <predecessor elementType="junction" elementId="4"/>
            <successor elementType="junction" elementId="5"/>
        </link>
        <type s="0" type="town"/>
        <planView>
            <geometry s="0.00000000" x="-5233313.14074175" y="-3516410.47565801" hdg="0.77993197" length="0.20000000">
                <line/>
            </geometry>
            <geometry s="0.20000000" x="-5233312.99854947" y="-3516410.33501180" hdg="0.77993197" length="15.27022584">
                <paramPoly3 aU="0.00000000" bU="11.45266366" cU="11.45250366" dU="-7.63503144" aV="0.00000000" bV="0.00000000" cV="-0.10579080" dV="0.05564858" pRange="normalized"/>
            </geometry>
            <geometry s="15.47022584" x="-5233302.10681100" y="-3516399.63222724" hdg="0.77603454" length="15.21887919">
                <paramPoly3 aU="0.00000000" bU="11.41415923" cU="11.41415158" dU="-7.60943472" aV="0.00000000" bV="0.00000000" cV="-0.02333289" dV="0.01396058" pRange="normalized"/>
            </geometry>
            <geometry s="30.68910503" x="-5233291.23858342" y="-3516388.97878149" hdg="0.77561540" length="22.21999882">
                <paramPoly3 aU="0.00000000" bU="16.66499908" cU="16.66499911" dU="-11.10999962" aV="0.00000000" bV="0.00000000" cV="0.00437975" dV="-0.00138617" pRange="normalized"/>
            </geometry>
            <geometry s="52.90910385" x="-5233275.37581615" y="-3516373.41918765" hdg="0.77589149" length="16.52646181">
                <paramPoly3 aU="0.00000000" bU="12.39484633" cU="12.39484605" dU="-8.26323090" aV="0.00000000" bV="0.00000000" cV="0.00551693" dV="-0.00237585" pRange="normalized"/>
            </geometry>
            <geometry s="69.43556567" x="-5233263.58147807" y="-3516361.84259368" hdg="0.77620665" length="20.07668772">
                <paramPoly3 aU="0.00000000" bU="15.05738633" cU="15.05896107" dU="-10.03983240" aV="0.00000000" bV="0.00000000" cV="0.22398654" dV="-0.22191920" pRange="normalized"/>
            </geometry>
            <geometry s="89.51225339" x="-5233249.25680306" y="-3516347.77596137" hdg="0.76174251" length="46.51971729">
                <line/>
            </geometry>
            <geometry s="136.03197068" x="-5233215.59353263" y="-3516315.66882322" hdg="0.76174251" length="7.21211592">
                <paramPoly3 aU="0.00000000" bU="5.40903228" cU="5.40728266" dU="-3.60485564" aV="0.00000000" bV="0.00000000" cV="0.27942446" dV="-0.18766639" pRange="normalized"/>
            </geometry>
            <geometry s="143.24408660" x="-5233210.43840208" y="-3516310.62519419" hdg="0.76097523" length="2.36657650">
                <paramPoly3 aU="0.00000000" bU="1.77466858" cU="1.77371602" dU="-1.18416082" aV="0.00000000" bV="0.00000000" cV="-0.15808246" dV="0.06079119" pRange="normalized"/>
            </geometry>
            <geometry s="145.61066310" x="-5233208.65922199" y="-3516309.06521410" hdg="0.68551414" length="22.60515937">
                <line/>
            </geometry>
            <geometry s="168.21582247" x="-5233191.16071135" y="-3516294.75454131" hdg="0.68551414" length="22.21994885">
                <paramPoly3 aU="0.00000000" bU="16.66495659" cU="16.66487215" dU="-11.10994450" aV="0.00000000" bV="0.00000000" cV="0.09762481" dV="-0.04690755" pRange="normalized"/>
            </geometry>
            <geometry s="190.43577131" x="-5233173.99254738" y="-3516280.64851516" hdg="0.68878610" length="17.00297097">
                <paramPoly3 aU="0.00000000" bU="12.75192533" cU="12.75531447" dU="-8.50468691" aV="0.00000000" bV="0.00000000" cV="0.36178055" dV="-0.33979511" pRange="normalized"/>
            </geometry>
            <geometry s="207.43874228" x="-5233160.88024207" y="-3516269.82471096" hdg="0.66558562" length="18.04245173">
                <paramPoly3 aU="0.00000000" bU="13.52411042" cU="13.62956281" dU="-9.12633468" aV="0.00000000" bV="0.00000000" cV="0.54746451" dV="-0.96387601" pRange="normalized"/>
            </geometry>
            <geometry s="225.48119401" x="-5233146.44360121" y="-3516259.02000206" hdg="0.53234014" length="32.43483791">
                <line/>
            </geometry>
            <geometry s="257.91603192" x="-5233118.49704130" y="-3516242.55766627" hdg="0.53234014" length="4.17885473">
                <paramPoly3 aU="0.00000000" bU="3.13366128" cU="3.13935404" dU="-2.09480435" aV="0.00000000" bV="0.00000000" cV="0.20649609" dV="-0.20066522" pRange="normalized"/>
            </geometry>
            <geometry s="262.09488665" x="-5233114.89996356" y="-3516240.43198693" hdg="0.47198956" length="20.07241957">
                <line/>
            </geometry>
        </planView>
        <elevationProfile>
            <elevation s="0" a="0.00" b="0" c="0" d="0"/>
        </elevationProfile>
        <lateralProfile/>
        <lanes>
            <laneSection s="0">
                <center>
                    <lane id="0" type="none" level="true">
                        <link/>
                        <roadMark sOffset="0" type="solid" weight="standard" color="standard" width="0.13" laneChange="none"/>
                    </lane>
                </center>
                <right>
                    <lane id="-1" type="driving" level="true">
                        <link/>
                        <width sOffset="0" a="6.00" b="0" c="0" d="0"/>
                        <roadMark sOffset="0" type="solid" weight="standard" color="standard" width="0.13" laneChange="none"/>
                        <speed sOffset="0" max="22.22"/>
                    </lane>
                 </right>
            </laneSection>
        </lanes>
        <objects/>
    </road>
    <road name="Rua Oscar Niemeyer" length="460.84542980" id="1413" junction="-1">
        <link>
            <predecessor elementType="junction" elementId="6"/>
            <successor elementType="junction" elementId="7"/>
        </link>
        <type s="0" type="town"/>
        <planView>
            <geometry s="0.00000000" x="-5231817.43822027" y="-3516247.10349200" hdg="-3.03595552" length="105.24687613">
                <line/>
            </geometry>
            <geometry s="105.24687613" x="-5231922.09840664" y="-3516258.20080355" hdg="-3.03595552" length="13.88999892">
                <paramPoly3 aU="-0.00000000" bU="10.41749898" cU="10.41749898" dU="-6.94500068" aV="0.00000000" bV="0.00000000" cV="-0.00922690" dV="0.00307563" pRange="normalized"/>
            </geometry>
            <geometry s="119.13687505" x="-5231935.91162390" y="-3516259.65925857" hdg="-3.03684123" length="103.36020957">
                <line/>
            </geometry>
            <geometry s="222.49708462" x="-5232038.70527328" y="-3516270.46659729" hdg="-3.03684123" length="13.70102621">
                <paramPoly3 aU="-0.00000000" bU="10.23962862" cU="10.23365827" dU="-7.05356121" aV="0.00000000" bV="0.00000000" cV="3.83258139" dV="-1.32042049" pRange="normalized"/>
            </geometry>
            <geometry s="236.19811083" x="-5232051.78876844" y="-3516274.36815390" hdg="-2.66672668" length="104.64908545">
                <line/>
            </geometry>
            <geometry s="340.84719627" x="-5232144.85885210" y="-3516322.21573076" hdg="-2.66672668" length="13.88860375">
                <paramPoly3 aU="-0.00000000" bU="10.41633156" cU="10.41368198" dU="-6.94312921" aV="0.00000000" bV="0.00000000" cV="0.41870632" dV="-0.21069942" pRange="normalized"/>
            </geometry>
            <geometry s="354.73580003" x="-5232157.11410359" y="-3516328.75007344" hdg="-2.64701459" length="6.42158926">
                <paramPoly3 aU="-0.00000000" bU="4.81474329" cU="4.83449112" dU="-3.22991346" aV="0.00000000" bV="0.00000000" cV="-0.24934279" dV="0.31509810" pRange="normalized"/>
            </geometry>
            <geometry s="361.15738929" x="-5232162.73297986" y="-3516331.85494617" hdg="-2.55412248" length="13.79135699">
                <paramPoly3 aU="-0.00000000" bU="10.34121189" cU="10.35433054" dU="-6.91744891" aV="0.00000000" bV="0.00000000" cV="0.64039079" dV="-0.11041554" pRange="normalized"/>
            </geometry>
            <geometry s="374.94874628" x="-5232173.90737164" y="-3516339.93267502" hdg="-2.46217249" length="10.93250900">
                <paramPoly3 aU="-0.00000000" bU="8.18821103" cU="8.31161235" dU="-5.60713824" aV="0.00000000" bV="-0.00000000" cV="0.42149161" dV="0.31588304" pRange="normalized"/>
            </geometry>
            <geometry s="385.88125527" x="-5232181.91787294" y="-3516347.35063834" hdg="-2.24170666" length="12.80394594">
                <paramPoly3 aU="-0.00000000" bU="9.59634596" cU="9.35266179" dU="-6.26234982" aV="0.00000000" bV="0.00000000" cV="3.73784917" dV="-2.07531808" pRange="normalized"/>
            </geometry>
            <geometry s="398.68520122" x="-5232188.50297142" y="-3516358.32113409" hdg="-2.11110445" length="62.16022859">
                <line/>
            </geometry>
        </planView>
        <elevationProfile>
            <elevation s="0" a="0.00" b="0" c="0" d="0"/>
        </elevationProfile>
        <lateralProfile/>
        <lanes>
            <laneSection s="0">
                <center>
                    <lane id="0" type="none" level="true">
                        <link/>
                        <roadMark sOffset="0" type="solid" weight="standard" color="standard" width="0.13" laneChange="none"/>
                    </lane>
                </center>
                <right>
                    <lane id="-1" type="driving" level="true">
                        <link/>
                        <width sOffset="0" a="6.00" b="0" c="0" d="0"/>
                        <roadMark sOffset="0" type="solid" weight="standard" color="standard" width="0.13" laneChange="none"/>
                        <speed sOffset="0" max="13.89"/>
                    </lane>
                    <lane id="-2" type="sidewalk" level="true">
                        <link/>
                        <width sOffset="0" a="2.80" b="0" c="0" d="0"/>
                        <roadMark sOffset="0" type="solid" weight="standard" color="standard" width="0.13" laneChange="none"/>
                        <speed sOffset="0" max="13.89"/>
                    </lane>
                 </right>
            </laneSection>
        </lanes>
        <objects/>
    </road>
    <road name="Rua Oscar Niemeyer" length="200.17222918" id="1414" junction="-1">
        <link>
            <predecessor elementType="junction" elementId="8"/>
            <successor elementType="junction" elementId="6"/>
        </link>
        <type s="0" type="town"/>
        <planView>
            <geometry s="0.00000000" x="-5231614.93359937" y="-3516221.28715514" hdg="-2.95755985" length="7.73658859">
                <line/>
            </geometry>
            <geometry s="7.73658859" x="-5231622.53954562" y="-3516222.70291803" hdg="-2.95755985" length="13.88542704">
                <paramPoly3 aU="-0.00000000" bU="10.41317043" cU="10.41316683" dU="-6.94788039" aV="0.00000000" bV="0.00000000" cV="-0.60062608" dV="0.20037504" pRange="normalized"/>
            </geometry>
            <geometry s="21.62201563" x="-5231636.25689099" y="-3516224.84912447" hdg="-3.01522334" length="147.51836404">
                <line/>
            </geometry>
            <geometry s="169.14037967" x="-5231782.59894626" y="-3516243.44134297" hdg="-3.01522334" length="13.88833753">
                <paramPoly3 aU="-0.00000000" bU="10.41613693" cU="10.41226366" dU="-6.94203520" aV="0.00000000" bV="0.00000000" cV="-0.49265622" dV="0.26799773" pRange="normalized"/>
            </geometry>
            <geometry s="183.02871720" x="-5231796.40289647" y="-3516244.96861963" hdg="-3.03263175" length="1.14440781">
                <paramPoly3 aU="-0.00000000" bU="0.85829861" cU="0.85795489" dU="-0.57198316" aV="0.00000000" bV="0.00000000" cV="-0.04305322" dV="0.02595029" pRange="normalized"/>
            </geometry>
            <geometry s="184.17312501" x="-5231797.54224073" y="-3516245.07605230" hdg="-3.04225042" length="13.88978881">
                <paramPoly3 aU="-0.00000000" bU="10.41732685" cU="10.41752335" dU="-6.94508240" aV="0.00000000" bV="-0.00000000" cV="-0.04634666" dV="0.05244260" pRange="normalized"/>
            </geometry>
            <geometry s="198.06291382" x="-5231811.36292205" y="-3516246.45969029" hdg="-3.03604586" length="2.10931535">
                <line/>
            </geometry>
        </planView>
        <elevationProfile>
            <elevation s="0" a="0.00" b="0" c="0" d="0"/>
        </elevationProfile>
        <lateralProfile/>
        <lanes>
            <laneSection s="0">
                <center>
                    <lane id="0" type="none" level="true">
                        <link/>
                        <roadMark sOffset="0" type="solid" weight="standard" color="standard" width="0.13" laneChange="none"/>
                    </lane>
                </center>
                <right>
                    <lane id="-1" type="driving" level="true">
                        <link/>
                        <width sOffset="0" a="6.00" b="0" c="0" d="0"/>
                        <roadMark sOffset="0" type="solid" weight="standard" color="standard" width="0.13" laneChange="none"/>
                        <speed sOffset="0" max="13.89"/>
                    </lane>
                    <lane id="-2" type="sidewalk" level="true">
                        <link/>
                        <width sOffset="0" a="2.80" b="0" c="0" d="0"/>
                        <roadMark sOffset="0" type="solid" weight="standard" color="standard" width="0.13" laneChange="none"/>
                        <speed sOffset="0" max="13.89"/>
                    </lane>
                 </right>
            </laneSection>
        </lanes>
        <objects/>
    </road>
    <road name="Avenida Bertrand Russell" length="179.70537565" id="1415" junction="-1">
        <link>
            <predecessor elementType="junction" elementId="9"/>
            <successor elementType="junction" elementId="10"/>
        </link>
        <type s="0" type="town"/>
        <planView>
            <geometry s="0.00000000" x="-5233271.42913493" y="-3516501.20228354" hdg="0.33648404" length="26.13014181">
                <line/>
            </geometry>
            <geometry s="26.13014181" x="-5233246.76433582" y="-3516492.57488557" hdg="0.33648404" length="22.21954826">
                <paramPoly3 aU="0.00000000" bU="16.66462557" cU="16.66368392" dU="-11.10930795" aV="0.00000000" bV="0.00000000" cV="-0.31070688" dV="0.16176109" pRange="normalized"/>
            </geometry>
            <geometry s="48.34969006" x="-5233225.74216809" y="-3516485.37942324" hdg="0.32831512" length="6.21778021">
                <paramPoly3 aU="0.00000000" bU="4.66250393" cU="4.67360774" dU="-3.11952505" aV="0.00000000" bV="0.00000000" cV="0.22758156" dV="-0.26014399" pRange="normalized"/>
            </geometry>
            <geometry s="54.56747027" x="-5233219.84712845" y="-3516483.40571677" hdg="0.25849571" length="22.15125578">
                <paramPoly3 aU="0.00000000" bU="16.60804367" cU="16.68147414" dU="-11.14909435" aV="0.00000000" bV="0.00000000" cV="0.46796542" dV="-0.86916815" pRange="normalized"/>
            </geometry>
            <geometry s="76.71872606" x="-5233198.33974903" y="-3516478.13391013" hdg="0.15767657" length="45.86841837">
                <line/>
            </geometry>
            <geometry s="122.58714443" x="-5233153.04033831" y="-3516470.93146666" hdg="0.15767657" length="22.20369274">
                <paramPoly3 aU="0.00000000" bU="16.64956344" cU="16.64953487" dU="-11.12024341" aV="0.00000000" bV="0.00000000" cV="-1.43424040" dV="0.47896499" pRange="normalized"/>
            </geometry>
            <geometry s="144.79083717" x="-5233130.98661571" y="-3516468.39227870" hdg="0.07158688" length="22.73547044">
                <line/>
            </geometry>
            <geometry s="167.52630761" x="-5233108.30937641" y="-3516466.76610710" hdg="0.07158688" length="11.97906804">
                <paramPoly3 aU="0.00000000" bU="8.98430091" cU="8.98430248" dU="-5.98953553" aV="0.00000000" bV="0.00000000" cV="0.00381838" dV="-0.00433874" pRange="normalized"/>
            </geometry>
            <geometry s="179.50537565" x="-5233096.36095267" y="-3516465.90981431" hdg="0.07098811" length="0.20000000">
                <line/>
            </geometry>
        </planView>
        <elevationProfile>
            <elevation s="0" a="0.00" b="0" c="0" d="0"/>
        </elevationProfile>
        <lateralProfile/>
        <lanes>
            <laneSection s="0">
                <center>
                    <lane id="0" type="none" level="true">
                        <link/>